LTspice 26.0.2 for Windows
Circuit: D:\project\python\LTspiece\projects\highpass_1khz\circuit.cir
Start Time: Sat Jul  4 20:38:12 2026
solver = Normal
Maximum thread count: 8
tnom = 27
temp = 27
method = trap
.OP point found by inspection.
.OP point found by inspection.
Total elapsed time: 0.011 seconds.

Files loaded:
D:\project\python\LTspiece\projects\highpass_1khz\circuit.cir

